/ PSSE 34 Dynamic data at: 19/12/2017 15:30:47
100 'USRMDL' 1 'HWS2000' 1 1 7 176 7 98
2 1 0 0 0 1 0     
90 0.8 50 0.99 1.5 50.5 52 0.25 50.25 0.111
0 1.111 -0.6667 0.6667 1.111 0.85 0.10 0.01 0.01 0
1.05 1.1215 1.1215 0 11.765 4 1.2 5 1.3 2
1.35 1 1.36 0.1 1.36 0.1 0.8 10 0.4 5
0.15 2 0.15 2 55 120 57 0.5 57 0.5
57 0.5 57 0.5 45 120 43 0.5 43 0.5
43 0.5 43 0.5 43 0.5 43 0.5 2 300
300 60 0.8 119.61 730.03 1.4 0.6 0 0.318 1.4
0.6 0.0013 0.006 0.006 1.25 0.833 100 200 300 400
500 600 700 800 900 1000 0.12 0.22 0.32 0.42
0.52 0.62 0.72 0.85 1 1.15 1100 1107.5 1115 1122.5
1130 1137.5 1145 1152.5 1160 1167.5 0.1 0.2 0.3 0.4
0.5 0.6 0.7 0.8 0.9 1.0 1.0 1.0 1.0 1.0
1.0 0.98 0.96 0.94 0.92 1.0 0.0 0.3 0.6 0.9
0.98 1.0 1.04 1.15 1.25 1.40 0.6667 0.6667 0.6667 0.6667
0.0 0.0 0.0 -0.6667 -0.6667 -0.6667 1.0 0.0 0.0 0.15
0.4 0.8 0.8 0.8 0.8 0.8 0.0 0.0 0.15 2.0
5.0 10.0 20.0 30.0 40.0 10000/
100 'USRMDL' 1 'GPMPPC'  4 0 17 39 0 101 
			 10 10 12 3 1 0 0 0 0 1 300 350 1 0 100 0 50
			 110 0.001 0.2 0.1 0.6 -0.6 0.5 0.5 0.0 1.0 0.05 
			 2.5 0.3 1 0.0 6 6 0.0 50.0 0.0 5.0
			 4.0 0.001 0.5 0.001 0.80 1.20 2000 1000 1 0.5 
                         10.0 50.5 52.0 50.2 60.0 49.9 48.0 10.0/
100 'USRMDL' 1 'GPMSMB'  3 0 2 1 0 10 0 100 1/
500 'USRMDL' 1 'ZINGEN'	 1 0 1 0 1 1 1/	