




HUAWEI SOLUTION MODEL TEST SYSTEM
SUN2000 90KTL + PPC

The Saved Case in file C:\Users\Z3209715\PycharmProjects\PSSE_HW\00 Model Acceptance Test GPM\Test Files\001_scr_3.0_xr_3.0_P_100.0_Qzero.sav was saved on FRI, SEP 21 2018  14:22



Generator conversion completed using ZSORCE





0 loads converted during this step



0 of 0 loads converted


Diagonals = 4   Off-diagonals = 3   Maximum size = 6



4 diagonal and 3 off-diagonal elements



ITER DELTAV/TOL X----------- AT BUS -----------X  REAL(DELTAV)  IMAG(DELTAV)
   1     0.010     100     [INV TERMINAL0.8000]   -0.9338E-07   -0.2030E-07

Reached tolerance in 1 iterations

Largest mismatch:     -0.00 MW      1.18 Mvar      1.18 MVA at bus 500 [REF BUS     220.00]
System total absolute mismatch:                    1.18 MVA


ibrary added:C:\Users\Z3209715\PycharmProjects\PSSE_HW\00 Model Acceptance Test GPM\dsusr_zingen_34_2.dll


ibrary added:C:\Users\Z3209715\PycharmProjects\PSSE_HW\00 Model Acceptance Test GPM\HWH9001_342.dll


ibrary added:C:\Users\Z3209715\PycharmProjects\PSSE_HW\00 Model Acceptance Test GPM\MOD_GPM_PPC_V13_34.dll


ibrary added:C:\Users\Z3209715\PycharmProjects\PSSE_HW\00 Model Acceptance Test GPM\MOD_GPM_SB_V7.dll


Out of file data--switch to terminal input mode

Generator models use:
 CONS        1-   176
 STATES      1-     8
 VARS        1-    99
 ICONS       1-     8

Stabilizer models use:
 CONS      177-   177
 VARS      100-   109
 ICONS       9-    10

Excitation System models use:
 CONS      178-   216
 VARS      110-   210
 ICONS      11-    27


SUMMARY OF MODELS READ:

USER:  USRMDL
          4

NEXT AVAILABLE ADDRESSES ARE:
   CON  STATE    VAR   ICON
   217      9    211     28

Compile models not supplied by PSS/E and create user dll



Case saved in file C:\Users\Z3209715\PycharmProjects\PSSE_HW\00 Model Acceptance Test GPM\Test Files\Conv.sav on FRI, SEP 21 2018  14:29









CHANNEL    1 WITH IDENTIFIER "UUT_VOLTAGE" ADDED



CHANNEL    2 WITH IDENTIFIER "UUT_PELEC" ADDED



CHANNEL    3 WITH IDENTIFIER "UUT_QELEC" ADDED



CHANNEL    4 WITH IDENTIFIER "POC_VOLTAGE" ADDED



CHANNEL    5 WITH IDENTIFIER "P_POC" ADDED

CHANNEL    6 WITH IDENTIFIER "Q_POC" ADDED



CHANNEL    7 WITH IDENTIFIER "SYS FREQ DEVIATION" ADDED



CHANNEL    8 WITH IDENTIFIER "SMIB_VOLTAGE" ADDED



Snapshot at TIME = 0.0 saved in file C:\Users\Z3209715\PycharmProjects\PSSE_HW\00 Model Acceptance Test GPM\Test Files\Snap.snp on FRI, SEP 21 2018  14:29



HUAWEI SOLUTION MODEL TEST SYSTEM
SUN2000 90KTL + PPC

The Saved Case in file C:\Users\Z3209715\PycharmProjects\PSSE_HW\00 Model Acceptance Test GPM\Test Files\Conv.sav was saved on FRI, SEP 21 2018  14:29



The Snapshot at TIME = 0.0 in file C:\Users\Z3209715\PycharmProjects\PSSE_HW\00 Model Acceptance Test GPM\Test Files\Snap.snp was saved on FRI, SEP 21 2018  14:29

NUMBER OF ELEMENTS RESTORED:
  CONS STATES   VARS  ICONS CHANNELS
   216      8    214     32      8



4 diagonal and 3 off-diagonal elements

    PTI INTERACTIVE POWER SYSTEM SIMULATOR--PSS(R)E     FRI, SEP 21 2018  14:29
HUAWEI SOLUTION MODEL TEST SYSTEM
SUN2000 90KTL + PPC

INITIAL CONDITION LOAD FLOW USED 1 ITERATIONS

----------------------------- MACHINE INITIAL CONDITIONS -----------------------------
  BUS#-SCT X-- NAME --X BASKV ID  ETERM   EFD    POWER    VARS   P.F.  ANGLE   ID     IQ
   100     INV TERMINAL0.8000 1  1.0081 0.0000  100.00    0.00 1.0000   0.00-0.3989 0.9082
   500     REF BUS     220.00 1  0.0000 0.0000    0.00    0.00 0.0000   0.00 0.0000 0.0000

INITIAL CONDITIONS CHECK O.K.

Channel output file is "C:\Users\Z3209715\PycharmProjects\PSSE_HW\00 Model Acceptance Test GPM\Test Files\Under_Frequency_Trip_Test\Results\001_scr_3.0_xr_3.0_P_100.0_Qzero.sav_02.Frequency step to 49Hz.out"



    PTI INTERACTIVE POWER SYSTEM SIMULATOR--PSS(R)E     FRI, SEP 21 2018  14:29
HUAWEI SOLUTION MODEL TEST SYSTEM
SUN2000 90KTL + PPC

INITIAL CONDITION LOAD FLOW USED 1 ITERATIONS

----------------------------- MACHINE INITIAL CONDITIONS -----------------------------
  BUS#-SCT X-- NAME --X BASKV ID  ETERM   EFD    POWER    VARS   P.F.  ANGLE   ID     IQ
   100     INV TERMINAL0.8000 1  1.0081 0.0000  100.00    0.00 1.0000 679.32-0.8945 0.4287
   500     REF BUS     220.00 1  0.0000 0.0000    0.00    0.00 0.0000-679.32 0.0000 0.0000

INITIAL CONDITIONS CHECK O.K.

Channel output file is "C:\Users\Z3209715\PycharmProjects\PSSE_HW\00 Model Acceptance Test GPM\Test Files\Under_Frequency_Trip_Test\Results\001_scr_3.0_xr_3.0_P_100.0_Qzero.sav_02.Frequency step to 49Hz.out"



    PTI INTERACTIVE POWER SYSTEM SIMULATOR--PSS(R)E     FRI, SEP 21 2018  14:29
HUAWEI SOLUTION MODEL TEST SYSTEM
SUN2000 90KTL + PPC

INITIAL CONDITION LOAD FLOW USED 1 ITERATIONS

----------------------------- MACHINE INITIAL CONDITIONS -----------------------------
  BUS#-SCT X-- NAME --X BASKV ID  ETERM   EFD    POWER    VARS   P.F.  ANGLE   ID     IQ
   100     INV TERMINAL0.8000 1  1.0081 0.0000  100.00    0.00 1.00001018.98-0.9878 0.0910
   500     REF BUS     220.00 1  0.0000 0.0000    0.00    0.00 0.0000******* 0.0000 0.0000

INITIAL CONDITIONS CHECK O.K.

Channel output file is "C:\Users\Z3209715\PycharmProjects\PSSE_HW\00 Model Acceptance Test GPM\Test Files\Under_Frequency_Trip_Test\Results\001_scr_3.0_xr_3.0_P_100.0_Qzero.sav_02.Frequency step to 49Hz.out"



Channel output file is "C:\Users\Z3209715\PycharmProjects\PSSE_HW\00 Model Acceptance Test GPM\Test Files\Under_Frequency_Trip_Test\Results\001_scr_3.0_xr_3.0_P_100.0_Qzero.sav_02.Frequency step to 49Hz.out"

   TIME X- VALUE --X X--------- IDENTIFIER ---------X X- VALUE --X X--------- IDENTIFIER ---------X
-0.0020   1.0081     UUT_VOLTAGE                        1.0000     UUT_PELEC
    3     0.0000     UUT_QELEC                          1.0410     POC_VOLTAGE
    5     99.133     P_POC                             -13.412     Q_POC
    7     0.0000     SYS FREQ DEVIATION                 1.0272     SMIB_VOLTAGE

 0.0030   1.0081       1.0000       0.0000       1.0410       99.132      -13.412
    7    4.60159E-08   1.0272

 0.0080   1.0081       1.0000       0.0000       1.0410       99.132      -13.413
    7    4.94005E-08   1.0272

 0.0130   1.0081       1.0000       0.0000       1.0410       99.132      -13.413
    7    4.58389E-08   1.0272

 0.0180   1.0081       1.0000       0.0000       1.0410       99.132      -13.413
    7    4.25316E-08   1.0272

   TIME X- VALUE --X X--------- IDENTIFIER ---------X X- VALUE --X X--------- IDENTIFIER ---------X
 0.0230   1.0081     UUT_VOLTAGE                        1.0000     UUT_PELEC
    3     0.0000     UUT_QELEC                          1.0410     POC_VOLTAGE
    5     99.132     P_POC                             -13.413     Q_POC
    7    3.73588E-08 SYS FREQ DEVIATION                 1.0272     SMIB_VOLTAGE

 0.0280   1.0081       1.0000       0.0000       1.0410       99.132      -13.413
    7    3.50598E-08   1.0272

 0.0330   1.0081       1.0000       0.0000       1.0410       99.132      -13.413
    7    3.08911E-08   1.0272

 0.0380   1.0081       1.0000       0.0000       1.0410       99.132      -13.413
    7    2.72180E-08   1.0272

 0.0430   1.0081       1.0000       0.0000       1.0410       99.132      -13.413
    7    2.39816E-08   1.0272

   TIME X- VALUE --X X--------- IDENTIFIER ---------X X- VALUE --X X--------- IDENTIFIER ---------X
 0.0480   1.0081     UUT_VOLTAGE                        1.0000     UUT_PELEC
    3     0.0000     UUT_QELEC                          1.0410     POC_VOLTAGE
    5     99.132     P_POC                             -13.413     Q_POC
    7    2.11301E-08 SYS FREQ DEVIATION                 1.0272     SMIB_VOLTAGE

 0.0530   1.0081       1.0000       0.0000       1.0410       99.132      -13.413
    7    1.86177E-08   1.0272

 0.0580   1.0081       1.0000       0.0000       1.0410       99.132      -13.413
    7    1.64039E-08   1.0272

 0.0630   1.0081       1.0000       0.0000       1.0410       99.132      -13.413
    7    1.44534E-08   1.0272

 0.0680   1.0081       1.0000       0.0000       1.0410       99.132      -13.413
    7    1.27349E-08   1.0272

   TIME X- VALUE --X X--------- IDENTIFIER ---------X X- VALUE --X X--------- IDENTIFIER ---------X
 0.0730   1.0081     UUT_VOLTAGE                        1.0000     UUT_PELEC
    3     0.0000     UUT_QELEC                          1.0410     POC_VOLTAGE
    5     99.132     P_POC                             -13.413     Q_POC
    7    1.12206E-08 SYS FREQ DEVIATION                 1.0272     SMIB_VOLTAGE

 0.0780   1.0081       1.0000       0.0000       1.0410       99.132      -13.413
    7    9.88645E-09   1.0272

 0.0830   1.0081       1.0000       0.0000       1.0410       99.132      -13.413
    7    8.71091E-09   1.0272

 0.0880   1.0081       1.0000       0.0000       1.0410       99.132      -13.413
    7    7.67514E-09   1.0272

 0.0930   1.0081       1.0000       0.0000       1.0410       99.132      -13.413
    7    6.76254E-09   1.0272

   TIME X- VALUE --X X--------- IDENTIFIER ---------X X- VALUE --X X--------- IDENTIFIER ---------X
 0.0980   1.0081     UUT_VOLTAGE                        1.0000     UUT_PELEC
    3     0.0000     UUT_QELEC                          1.0410     POC_VOLTAGE
    5     99.132     P_POC                             -13.413     Q_POC
    7    5.95844E-09 SYS FREQ DEVIATION                 1.0272     SMIB_VOLTAGE

 0.1030   1.0081       1.0000       0.0000       1.0410       99.132      -13.413
    7    5.24996E-09   1.0272

 0.1080   1.0081       1.0000       0.0000       1.0410       99.132      -13.413
    7    4.62571E-09   1.0272

 0.1130   1.0081       1.0000       0.0000       1.0410       99.132      -13.413
    7    4.07570E-09   1.0272

 0.1180   1.0081       1.0000       0.0000       1.0410       99.132      -13.413
    7    3.59108E-09   1.0272

   TIME X- VALUE --X X--------- IDENTIFIER ---------X X- VALUE --X X--------- IDENTIFIER ---------X
 0.1230   1.0081     UUT_VOLTAGE                        1.0000     UUT_PELEC
    3     0.0000     UUT_QELEC                          1.0410     POC_VOLTAGE
    5     99.132     P_POC                             -13.413     Q_POC
    7    3.16408E-09 SYS FREQ DEVIATION                 1.0272     SMIB_VOLTAGE

 0.1280   1.0081       1.0000       0.0000       1.0410       99.132      -13.413
    7    2.78786E-09   1.0272

 0.1330   1.0081       1.0000       0.0000       1.0410       99.132      -13.413
    7    2.45637E-09   1.0272

 0.1380   1.0081       1.0000       0.0000       1.0410       99.132      -13.413
    7    2.16430E-09   1.0272

 0.1430   1.0081       1.0000       0.0000       1.0410       99.132      -13.413
    7    1.90695E-09   1.0272

   TIME X- VALUE --X X--------- IDENTIFIER ---------X X- VALUE --X X--------- IDENTIFIER ---------X
 0.1480   1.0081     UUT_VOLTAGE                        1.0000     UUT_PELEC
    3     0.0000     UUT_QELEC                          1.0410     POC_VOLTAGE
    5     99.132     P_POC                             -13.413     Q_POC
    7    1.68021E-09 SYS FREQ DEVIATION                 1.0272     SMIB_VOLTAGE

 0.1530   1.0081       1.0000       0.0000       1.0410       99.132      -13.413
    7    1.48043E-09   1.0272

 0.1580   1.0081       1.0000       0.0000       1.0410       99.132      -13.413
    7    1.30440E-09   1.0272

 0.1630   1.0081       1.0000       0.0000       1.0410       99.132      -13.413
    7    1.14930E-09   1.0272

 0.1680   1.0081       1.0000       0.0000       1.0410       99.132      -13.413
    7    1.01264E-09   1.0272

   TIME X- VALUE --X X--------- IDENTIFIER ---------X X- VALUE --X X--------- IDENTIFIER ---------X
 0.1730   1.0081     UUT_VOLTAGE                        1.0000     UUT_PELEC
    3     0.0000     UUT_QELEC                          1.0410     POC_VOLTAGE
    5     99.132     P_POC                             -13.413     Q_POC
    7    8.92234E-10 SYS FREQ DEVIATION                 1.0272     SMIB_VOLTAGE

 0.1780   1.0081       1.0000       0.0000       1.0410       99.132      -13.413
    7    7.86143E-10   1.0272

 0.1830   1.0081       1.0000       0.0000       1.0410       99.132      -13.413
    7    6.92668E-10   1.0272

 0.1880   1.0081       1.0000       0.0000       1.0410       99.132      -13.413
    7    6.10306E-10   1.0272

 0.1930   1.0081       1.0000       0.0000       1.0410       99.132      -13.413
    7    5.37738E-10   1.0272

   TIME X- VALUE --X X--------- IDENTIFIER ---------X X- VALUE --X X--------- IDENTIFIER ---------X
 0.1980   1.0081     UUT_VOLTAGE                        1.0000     UUT_PELEC
    3     0.0000     UUT_QELEC                          1.0410     POC_VOLTAGE
    5     99.132     P_POC                             -13.413     Q_POC
    7    4.73799E-10 SYS FREQ DEVIATION                 1.0272     SMIB_VOLTAGE

 0.2030   1.0081       1.0000       0.0000       1.0410       99.132      -13.413
    7    4.17462E-10   1.0272

 0.2080   1.0081       1.0000       0.0000       1.0410       99.132      -13.413
    7    3.67824E-10   1.0272

 0.2130   1.0081       1.0000       0.0000       1.0410       99.132      -13.413
    7    3.24088E-10   1.0272

 0.2180   1.0081       1.0000       0.0000       1.0410       99.132      -13.413
    7    2.85553E-10   1.0272

   TIME X- VALUE --X X--------- IDENTIFIER ---------X X- VALUE --X X--------- IDENTIFIER ---------X
 0.2230   1.0081     UUT_VOLTAGE                        1.0000     UUT_PELEC
    3     0.0000     UUT_QELEC                          1.0410     POC_VOLTAGE
    5     99.132     P_POC                             -13.413     Q_POC
    7    2.51599E-10 SYS FREQ DEVIATION                 1.0272     SMIB_VOLTAGE

 0.2280   1.0081       1.0000       0.0000       1.0410       99.132      -13.413
    7    2.21683E-10   1.0272

 0.2330   1.0081       1.0000       0.0000       1.0410       99.132      -13.413
    7    1.95324E-10   1.0272

 0.2380   1.0081       1.0000       0.0000       1.0410       99.132      -13.413
    7    1.72099E-10   1.0272

 0.2430   1.0081       1.0000       0.0000       1.0410       99.132      -13.413
    7    1.51636E-10   1.0272

   TIME X- VALUE --X X--------- IDENTIFIER ---------X X- VALUE --X X--------- IDENTIFIER ---------X
 0.2480   1.0081     UUT_VOLTAGE                        1.0000     UUT_PELEC
    3     0.0000     UUT_QELEC                          1.0410     POC_VOLTAGE
    5     99.132     P_POC                             -13.413     Q_POC
    7    1.33606E-10 SYS FREQ DEVIATION                 1.0272     SMIB_VOLTAGE

 0.2530   1.0081       1.0000       0.0000       1.0410       99.132      -13.413
    7    1.17719E-10   1.0272

 0.2580   1.0081       1.0000       0.0000       1.0410       99.132      -13.413
    7    1.03722E-10   1.0272

 0.2630   1.0081       1.0000       0.0000       1.0410       99.132      -13.413
    7    9.13890E-11   1.0272

 0.2680   1.0081       1.0000       0.0000       1.0410       99.132      -13.413
    7    8.05224E-11   1.0272

   TIME X- VALUE --X X--------- IDENTIFIER ---------X X- VALUE --X X--------- IDENTIFIER ---------X
 0.2730   1.0081     UUT_VOLTAGE                        1.0000     UUT_PELEC
    3     0.0000     UUT_QELEC                          1.0410     POC_VOLTAGE
    5     99.132     P_POC                             -13.413     Q_POC
    7    7.09480E-11 SYS FREQ DEVIATION                 1.0272     SMIB_VOLTAGE

 0.2780   1.0081       1.0000       0.0000       1.0410       99.132      -13.413
    7    6.25120E-11   1.0272

 0.2830   1.0081       1.0000       0.0000       1.0410       99.132      -13.413
    7    5.50790E-11   1.0272

 0.2880   1.0081       1.0000       0.0000       1.0410       99.132      -13.413
    7    4.85299E-11   1.0272

 0.2930   1.0081       1.0000       0.0000       1.0410       99.132      -13.413
    7    4.27595E-11   1.0272

   TIME X- VALUE --X X--------- IDENTIFIER ---------X X- VALUE --X X--------- IDENTIFIER ---------X
 0.2980   1.0081     UUT_VOLTAGE                        1.0000     UUT_PELEC
    3     0.0000     UUT_QELEC                          1.0410     POC_VOLTAGE
    5     99.132     P_POC                             -13.413     Q_POC
    7    3.76752E-11 SYS FREQ DEVIATION                 1.0272     SMIB_VOLTAGE

 0.3030   1.0081       1.0000       0.0000       1.0410       99.132      -13.413
    7    3.31954E-11   1.0272

 0.3080   1.0081       1.0000       0.0000       1.0410       99.132      -13.413
    7    2.92484E-11   1.0272

 0.3130   1.0081       1.0000       0.0000       1.0410       99.132      -13.413
    7    2.57706E-11   1.0272

 0.3180   1.0081       1.0000       0.0000       1.0410       99.132      -13.413
    7    2.27064E-11   1.0272

   TIME X- VALUE --X X--------- IDENTIFIER ---------X X- VALUE --X X--------- IDENTIFIER ---------X
 0.3230   1.0081     UUT_VOLTAGE                        1.0000     UUT_PELEC
    3     0.0000     UUT_QELEC                          1.0410     POC_VOLTAGE
    5     99.132     P_POC                             -13.413     Q_POC
    7    2.00065E-11 SYS FREQ DEVIATION                 1.0272     SMIB_VOLTAGE

 0.3280   1.0081       1.0000       0.0000       1.0410       99.132      -13.413
    7    1.76276E-11   1.0272

 0.3330   1.0081       1.0000       0.0000       1.0410       99.132      -13.413
    7    1.55316E-11   1.0272

 0.3380   1.0081       1.0000       0.0000       1.0410       99.132      -13.413
    7    1.36848E-11   1.0272

 0.3430   1.0081       1.0000       0.0000       1.0410       99.132      -13.413
    7    1.20577E-11   1.0272

   TIME X- VALUE --X X--------- IDENTIFIER ---------X X- VALUE --X X--------- IDENTIFIER ---------X
 0.3480   1.0081     UUT_VOLTAGE                        1.0000     UUT_PELEC
    3     0.0000     UUT_QELEC                          1.0410     POC_VOLTAGE
    5     99.132     P_POC                             -13.413     Q_POC
    7    1.06240E-11 SYS FREQ DEVIATION                 1.0272     SMIB_VOLTAGE

 0.3530   1.0081       1.0000       0.0000       1.0410       99.132      -13.413
    7    9.36072E-12   1.0272

 0.3580   1.0081       1.0000       0.0000       1.0410       99.132      -13.413
    7    8.24769E-12   1.0272

 0.3630   1.0081       1.0000       0.0000       1.0410       99.132      -13.413
    7    7.26700E-12   1.0272

 0.3680   1.0081       1.0000       0.0000       1.0410       99.132      -13.413
    7    6.40293E-12   1.0272

   TIME X- VALUE --X X--------- IDENTIFIER ---------X X- VALUE --X X--------- IDENTIFIER ---------X
 0.3730   1.0081     UUT_VOLTAGE                        1.0000     UUT_PELEC
    3     0.0000     UUT_QELEC                          1.0410     POC_VOLTAGE
    5     99.132     P_POC                             -13.413     Q_POC
    7    5.64159E-12 SYS FREQ DEVIATION                 1.0272     SMIB_VOLTAGE

 0.3780   1.0081       1.0000       0.0000       1.0410       99.132      -13.413
    7    4.97078E-12   1.0272

 0.3830   1.0081       1.0000       0.0000       1.0410       99.132      -13.413
    7    4.37973E-12   1.0272

 0.3880   1.0081       1.0000       0.0000       1.0410       99.132      -13.413
    7    3.85896E-12   1.0272

 0.3930   1.0081       1.0000       0.0000       1.0410       99.132      -13.413
    7    3.40012E-12   1.0272

   TIME X- VALUE --X X--------- IDENTIFIER ---------X X- VALUE --X X--------- IDENTIFIER ---------X
 0.3980   1.0081     UUT_VOLTAGE                        1.0000     UUT_PELEC
    3     0.0000     UUT_QELEC                          1.0410     POC_VOLTAGE
    5     99.132     P_POC                             -13.413     Q_POC
    7    2.99583E-12 SYS FREQ DEVIATION                 1.0272     SMIB_VOLTAGE

 0.4030   1.0081       1.0000       0.0000       1.0410       99.132      -13.413
    7    2.63961E-12   1.0272

 0.4080   1.0081       1.0000       0.0000       1.0410       99.132      -13.413
    7    2.32575E-12   1.0272

 0.4130   1.0081       1.0000       0.0000       1.0410       99.132      -13.413
    7    2.04921E-12   1.0272

 0.4180   1.0081       1.0000       0.0000       1.0410       99.132      -13.413
    7    1.80555E-12   1.0272

   TIME X- VALUE --X X--------- IDENTIFIER ---------X X- VALUE --X X--------- IDENTIFIER ---------X
 0.4230   1.0081     UUT_VOLTAGE                        1.0000     UUT_PELEC
    3     0.0000     UUT_QELEC                          1.0410     POC_VOLTAGE
    5     99.132     P_POC                             -13.413     Q_POC
    7    1.59086E-12 SYS FREQ DEVIATION                 1.0272     SMIB_VOLTAGE

 0.4280   1.0081       1.0000       0.0000       1.0410       99.132      -13.413
    7    1.40170E-12   1.0272

 0.4330   1.0081       1.0000       0.0000       1.0410       99.132      -13.413
    7    1.23503E-12   1.0272

 0.4380   1.0081       1.0000       0.0000       1.0410       99.132      -13.413
    7    1.08818E-12   1.0272

 0.4430   1.0081       1.0000       0.0000       1.0410       99.132      -13.413
    7    9.58792E-13   1.0272

   TIME X- VALUE --X X--------- IDENTIFIER ---------X X- VALUE --X X--------- IDENTIFIER ---------X
 0.4480   1.0081     UUT_VOLTAGE                        1.0000     UUT_PELEC
    3     0.0000     UUT_QELEC                          1.0410     POC_VOLTAGE
    5     99.132     P_POC                             -13.413     Q_POC
    7    8.44788E-13 SYS FREQ DEVIATION                 1.0272     SMIB_VOLTAGE

 0.4530   1.0081       1.0000       0.0000       1.0410       99.132      -13.413
    7    7.44339E-13   1.0272

 0.4580   1.0081       1.0000       0.0000       1.0410       99.132      -13.413
    7    6.55834E-13   1.0272

 0.4630   1.0081       1.0000       0.0000       1.0410       99.132      -13.413
    7    5.77852E-13   1.0272

 0.4680   1.0081       1.0000       0.0000       1.0410       99.132      -13.413
    7    5.09143E-13   1.0272

   TIME X- VALUE --X X--------- IDENTIFIER ---------X X- VALUE --X X--------- IDENTIFIER ---------X
 0.4730   1.0081     UUT_VOLTAGE                        1.0000     UUT_PELEC
    3     0.0000     UUT_QELEC                          1.0410     POC_VOLTAGE
    5     99.132     P_POC                             -13.413     Q_POC
    7    4.48604E-13 SYS FREQ DEVIATION                 1.0272     SMIB_VOLTAGE

 0.4780   1.0081       1.0000       0.0000       1.0410       99.132      -13.413
    7    3.95263E-13   1.0272

 0.4830   1.0081       1.0000       0.0000       1.0410       99.132      -13.413
    7    3.48264E-13   1.0272

 0.4880   1.0081       1.0000       0.0000       1.0410       99.132      -13.413
    7    3.06854E-13   1.0272

 0.4930   1.0081       1.0000       0.0000       1.0410       99.132      -13.413
    7    2.70368E-13   1.0272

   TIME X- VALUE --X X--------- IDENTIFIER ---------X X- VALUE --X X--------- IDENTIFIER ---------X
 0.4980   1.0081     UUT_VOLTAGE                        1.0000     UUT_PELEC
    3     0.0000     UUT_QELEC                          1.0410     POC_VOLTAGE
    5     99.132     P_POC                             -13.413     Q_POC
    7    2.38220E-13 SYS FREQ DEVIATION                 1.0272     SMIB_VOLTAGE

 0.5030   1.0081       1.0000       0.0000       1.0410       99.132      -13.413
    7    2.09895E-13   1.0272

 0.5080   1.0081       1.0000       0.0000       1.0410       99.132      -13.413
    7    1.84937E-13   1.0272

 0.5130   1.0081       1.0000       0.0000       1.0410       99.132      -13.413
    7    1.62947E-13   1.0272

 0.5180   1.0081       1.0000       0.0000       1.0410       99.132      -13.413
    7    1.43572E-13   1.0272

   TIME X- VALUE --X X--------- IDENTIFIER ---------X X- VALUE --X X--------- IDENTIFIER ---------X
 0.5230   1.0081     UUT_VOLTAGE                        1.0000     UUT_PELEC
    3     0.0000     UUT_QELEC                          1.0410     POC_VOLTAGE
    5     99.132     P_POC                             -13.413     Q_POC
    7    1.26501E-13 SYS FREQ DEVIATION                 1.0272     SMIB_VOLTAGE

 0.5280   1.0081       1.0000       0.0000       1.0410       99.132      -13.413
    7    1.11459E-13   1.0272

 0.5330   1.0081       1.0000       0.0000       1.0410       99.132      -13.413
    7    9.82064E-14   1.0272

 0.5380   1.0081       1.0000       0.0000       1.0410       99.132      -13.413
    7    8.65293E-14   1.0272

 0.5430   1.0081       1.0000       0.0000       1.0410       99.132      -13.413
    7    7.62406E-14   1.0272

   TIME X- VALUE --X X--------- IDENTIFIER ---------X X- VALUE --X X--------- IDENTIFIER ---------X
 0.5480   1.0081     UUT_VOLTAGE                        1.0000     UUT_PELEC
    3     0.0000     UUT_QELEC                          1.0410     POC_VOLTAGE
    5     99.132     P_POC                             -13.413     Q_POC
    7    6.71752E-14 SYS FREQ DEVIATION                 1.0272     SMIB_VOLTAGE

 0.5530   1.0081       1.0000       0.0000       1.0410       99.132      -13.413
    7    5.91878E-14   1.0272

 0.5580   1.0081       1.0000       0.0000       1.0410       99.132      -13.413
    7    5.21501E-14   1.0272

 0.5630   1.0081       1.0000       0.0000       1.0410       99.132      -13.413
    7    4.59493E-14   1.0272

 0.5680   1.0081       1.0000       0.0000       1.0410       99.132      -13.413
    7    4.04857E-14   1.0272

   TIME X- VALUE --X X--------- IDENTIFIER ---------X X- VALUE --X X--------- IDENTIFIER ---------X
 0.5730   1.0081     UUT_VOLTAGE                        1.0000     UUT_PELEC
    3     0.0000     UUT_QELEC                          1.0410     POC_VOLTAGE
    5     99.132     P_POC                             -13.413     Q_POC
    7    3.56718E-14 SYS FREQ DEVIATION                 1.0272     SMIB_VOLTAGE

 0.5780   1.0081       1.0000       0.0000       1.0410       99.132      -13.413
    7    3.14302E-14   1.0272

 0.5830   1.0081       1.0000       0.0000       1.0410       99.132      -13.413
    7    2.76931E-14   1.0272

 0.5880   1.0081       1.0000       0.0000       1.0410       99.132      -13.413
    7    2.44002E-14   1.0272

 0.5930   1.0081       1.0000       0.0000       1.0410       99.132      -13.413
    7    2.14989E-14   1.0272

   TIME X- VALUE --X X--------- IDENTIFIER ---------X X- VALUE --X X--------- IDENTIFIER ---------X
 0.5980   1.0081     UUT_VOLTAGE                        1.0000     UUT_PELEC
    3     0.0000     UUT_QELEC                          1.0410     POC_VOLTAGE
    5     99.132     P_POC                             -13.413     Q_POC
    7    1.89426E-14 SYS FREQ DEVIATION                 1.0272     SMIB_VOLTAGE

 0.6030   1.0081       1.0000       0.0000       1.0410       99.132      -13.413
    7    1.66903E-14   1.0272

 0.6080   1.0081       1.0000       0.0000       1.0410       99.132      -13.413
    7    1.47057E-14   1.0272

 0.6130   1.0081       1.0000       0.0000       1.0410       99.132      -13.413
    7    1.29571E-14   1.0272

 0.6180   1.0081       1.0000       0.0000       1.0410       99.132      -13.413
    7    1.14165E-14   1.0272

   TIME X- VALUE --X X--------- IDENTIFIER ---------X X- VALUE --X X--------- IDENTIFIER ---------X
 0.6230   1.0081     UUT_VOLTAGE                        1.0000     UUT_PELEC
    3     0.0000     UUT_QELEC                          1.0410     POC_VOLTAGE
    5     99.132     P_POC                             -13.413     Q_POC
    7    1.00590E-14 SYS FREQ DEVIATION                 1.0272     SMIB_VOLTAGE

 0.6280   1.0081       1.0000       0.0000       1.0410       99.132      -13.413
    7    8.86295E-15   1.0272

 0.6330   1.0081       1.0000       0.0000       1.0410       99.132      -13.413
    7    7.80911E-15   1.0272

 0.6380   1.0081       1.0000       0.0000       1.0410       99.132      -13.413
    7    6.88057E-15   1.0272

 0.6430   1.0081       1.0000       0.0000       1.0410       99.132      -13.413
    7    6.06244E-15   1.0272

   TIME X- VALUE --X X--------- IDENTIFIER ---------X X- VALUE --X X--------- IDENTIFIER ---------X
 0.6480   1.0081     UUT_VOLTAGE                        1.0000     UUT_PELEC
    3     0.0000     UUT_QELEC                          1.0410     POC_VOLTAGE
    5     99.132     P_POC                             -13.413     Q_POC
    7    5.34159E-15 SYS FREQ DEVIATION                 1.0272     SMIB_VOLTAGE

 0.6530   1.0081       1.0000       0.0000       1.0410       99.132      -13.413
    7    4.70645E-15   1.0272

 0.6580   1.0081       1.0000       0.0000       1.0410       99.132      -13.413
    7    4.14684E-15   1.0272

 0.6630   1.0081       1.0000       0.0000       1.0410       99.132      -13.413
    7    3.65376E-15   1.0272

 0.6680   1.0081       1.0000       0.0000       1.0410       99.132      -13.413
    7    3.21931E-15   1.0272

   TIME X- VALUE --X X--------- IDENTIFIER ---------X X- VALUE --X X--------- IDENTIFIER ---------X
 0.6730   1.0081     UUT_VOLTAGE                        1.0000     UUT_PELEC
    3     0.0000     UUT_QELEC                          1.0410     POC_VOLTAGE
    5     99.132     P_POC                             -13.413     Q_POC
    7    2.83652E-15 SYS FREQ DEVIATION                 1.0272     SMIB_VOLTAGE
